grep -i sim_CPI $1
grep -i sim_IPC $1
grep -i sim_num_insn $1
grep -i sim_num_loads $1
grep -i sim_num_stores $1
grep -i sim_num_branches $1
grep -i 'dl1.accesses' $1
grep -i 'dl1.hits' $1
grep -i 'dl1.misses' $1
grep -i 'dl1.miss_rate' $1
grep -i 'il1.accesses' $1
grep -i 'il1.hits' $1
grep -i 'il1.misses' $1
grep -i 'il1.miss_rate' $1

